<?xml version="1.0" encoding="UTF-8"?>
<edges>
    <edge id="A_B" from="A" to="B" length="1000"/>
</edges>
