<?xml version="1.0" encoding="UTF-8"?>
<nodes>
    <node id="A" x="0" y="0" type="traffic_light"/>
    <node id="B" x="1000" y="0"/>
    
</nodes>
