<routes>
    <vType id="car" accel="1.0" decel="1.0" length="5.0" maxSpeed="30"/>
    
    <route id="route1" edges="A_B"/>
    
    <vehicle id="veh0" type="car" route="route1" depart="0"/>
    <vehicle id="veh1" type="car" route="route1" depart="10"/>
</routes>
