<?xml version="1.0" encoding="UTF-8"?>
<additional>
    <tlLogic id="A" type="static" programID="1" offset="0">
        <phase duration="30" state="Gr"/>
        <phase duration="5" state="yr"/>
        <phase duration="30" state="rG"/>
        <phase duration="5" state="ry"/>
    </tlLogic>
</additional>
